Version 4.1
SHEET 1 952 680
WIRE 592 -128 464 -128
WIRE 192 64 144 64
WIRE 288 64 272 64
WIRE 416 64 416 -48
WIRE 416 64 368 64
WIRE 432 64 416 64
WIRE 144 128 144 64
WIRE 416 192 416 64
WIRE 496 192 496 64
WIRE 416 304 416 192
FLAG 144 208 0
FLAG 656 64 0
FLAG 576 304 0
FLAG 416 -224 0
FLAG 672 -128 0
SYMBOL voltage 144 112 R0
WINDOW 0 -69 24 Left 2
WINDOW 3 -356 92 Left 2
WINDOW 123 0 0 Left 0
WINDOW 39 0 0 Left 0
SYMATTR InstName V1
SYMATTR Value PULSE(0 5 0 10n 10n 4u 8u)
SYMBOL ind 272 80 R270
WINDOW 0 32 56 VTop 2
WINDOW 3 5 56 VBottom 2
SYMATTR InstName L1
SYMATTR Value 345”
SYMATTR SpiceLine Rser=2
SYMBOL cap 496 48 R90
WINDOW 0 0 32 VBottom 2
WINDOW 3 32 32 VTop 2
SYMATTR InstName C1
SYMATTR Value 4.7n
SYMBOL res 512 288 R90
WINDOW 0 0 56 VBottom 2
WINDOW 3 32 56 VTop 2
SYMATTR InstName R1
SYMATTR Value 150k
SYMBOL res 288 48 R90
WINDOW 0 0 56 VBottom 2
WINDOW 3 32 56 VTop 2
SYMATTR InstName R2
SYMATTR Value 3
SYMBOL voltage 560 64 R270
WINDOW 0 -52 50 VRight 2
WINDOW 3 49 23 VRight 2
WINDOW 123 0 0 Left 0
WINDOW 39 0 0 Left 0
SYMATTR InstName V2
SYMATTR Value PULSE(0 5 4u 10n 10n 4u 8u)
SYMBOL res 592 48 R90
WINDOW 0 0 56 VBottom 2
WINDOW 3 32 56 VTop 2
SYMATTR InstName R3
SYMATTR Value 3
SYMBOL res 592 288 R90
WINDOW 0 0 56 VBottom 2
WINDOW 3 32 56 VTop 2
SYMATTR InstName R4
SYMATTR Value 25k
SYMBOL res 512 176 R90
WINDOW 0 0 56 VBottom 2
WINDOW 3 32 56 VTop 2
SYMATTR InstName R5
SYMATTR Value 10k
SYMBOL Contrib\\Toshiba\\lvmos\\T2N7002AK_G0_00 464 -48 R180
SYMATTR InstName U1
SYMBOL voltage 576 -128 R270
WINDOW 0 32 56 VTop 2
WINDOW 3 -37 160 VBottom 2
WINDOW 123 0 0 Left 0
WINDOW 39 0 0 Left 0
SYMATTR InstName V3
SYMATTR Value PULSE(0 3.3 1m 10n 10n 256u 512u)
SYMBOL res 400 -240 R0
SYMATTR InstName R6
SYMATTR Value 680
TEXT 104 232 Left 2 !.tran 5m
