Version 4.1
SHEET 1 2028 680
WIRE 416 -288 416 -336
WIRE 464 -240 464 -416
WIRE 720 -240 464 -240
WIRE 416 -176 416 -208
WIRE 416 -176 272 -176
WIRE 496 -176 416 -176
WIRE 720 -144 720 -240
WIRE 768 -144 720 -144
WIRE 208 -80 192 -80
WIRE 272 -80 272 -176
WIRE 720 -64 720 -144
WIRE 768 -64 720 -64
WIRE 416 -48 416 -176
WIRE 416 -48 384 -48
WIRE 432 -48 416 -48
WIRE 496 -48 496 -176
WIRE 128 -16 128 -80
WIRE 320 -16 320 -48
WIRE 320 -16 128 -16
WIRE 208 64 208 -80
WIRE 208 64 144 64
WIRE 288 64 208 64
WIRE 416 64 416 -48
WIRE 416 64 368 64
WIRE 432 64 416 64
WIRE 64 128 64 64
WIRE 416 192 416 64
WIRE 496 192 496 64
WIRE 416 304 416 192
FLAG 64 208 0
FLAG 656 64 0
FLAG 576 304 0
FLAG 848 -144 0
FLAG 928 -64 0
FLAG 416 -432 0
SYMBOL voltage 64 112 R0
WINDOW 0 -69 24 Left 2
WINDOW 3 -356 92 Left 2
WINDOW 123 0 0 Left 0
WINDOW 39 0 0 Left 0
SYMATTR InstName V1
SYMATTR Value PULSE(0 5 0 10n 10n 4u 8u 625)
SYMBOL ind 272 80 R270
WINDOW 0 32 56 VTop 2
WINDOW 3 5 56 VBottom 2
SYMATTR InstName L1
SYMATTR Value 345µ
SYMATTR SpiceLine Rser=2
SYMBOL cap 496 48 R90
WINDOW 0 0 32 VBottom 2
WINDOW 3 32 32 VTop 2
SYMATTR InstName C1
SYMATTR Value 4.7n
SYMBOL res 512 288 R90
WINDOW 0 0 56 VBottom 2
WINDOW 3 32 56 VTop 2
SYMATTR InstName R1
SYMATTR Value 330k
SYMBOL res 160 48 R90
WINDOW 0 0 56 VBottom 2
WINDOW 3 32 56 VTop 2
SYMATTR InstName R2
SYMATTR Value 3
SYMBOL voltage 560 64 R270
WINDOW 0 -52 50 VRight 2
WINDOW 3 49 23 VRight 2
WINDOW 123 0 0 Left 0
WINDOW 39 0 0 Left 0
SYMATTR InstName V2
SYMATTR Value PULSE(0 5 4u 10n 10n 4u 8u 625)
SYMBOL res 592 48 R90
WINDOW 0 0 56 VBottom 2
WINDOW 3 32 56 VTop 2
SYMATTR InstName R3
SYMATTR Value 3
SYMBOL res 592 288 R90
WINDOW 0 0 56 VBottom 2
WINDOW 3 32 56 VTop 2
SYMATTR InstName R4
SYMATTR Value 25k
SYMBOL res 512 176 R90
WINDOW 0 0 56 VBottom 2
WINDOW 3 32 56 VTop 2
SYMATTR InstName R5
SYMATTR Value 10k
SYMBOL voltage 832 -64 R270
WINDOW 0 32 56 VTop 2
WINDOW 3 46 322 VBottom 2
WINDOW 123 0 0 Left 0
WINDOW 39 0 0 Left 0
SYMATTR InstName V3
SYMATTR Value PULSE(0 3.3 7.5m 10n 10n 256u 512u)
SYMBOL res 432 -192 R180
WINDOW 0 36 76 Left 2
WINDOW 3 36 40 Left 2
SYMATTR InstName R6
SYMATTR Value 470
SYMBOL res 864 -160 R90
WINDOW 0 0 56 VBottom 2
WINDOW 3 32 56 VTop 2
SYMATTR InstName R7
SYMATTR Value 10k
SYMBOL res 864 -80 R90
WINDOW 0 0 56 VBottom 2
WINDOW 3 32 56 VTop 2
SYMATTR InstName R8
SYMATTR Value 1k
SYMBOL nmos 464 -336 R180
SYMATTR InstName M2
SYMATTR Value DMN10H220L
SYMATTR Prefix M
SYMBOL diode 208 -64 R270
WINDOW 0 38 39 VTop 2
WINDOW 3 -4 47 VBottom 2
SYMATTR InstName D1
SYMATTR Value BAS21
SYMBOL diode 432 -32 R270
WINDOW 0 32 32 VTop 2
WINDOW 3 0 32 VBottom 2
SYMATTR InstName D2
SYMATTR Value BAS21
SYMBOL diode 128 -64 R270
WINDOW 0 37 30 VTop 2
WINDOW 3 -5 32 VBottom 2
SYMATTR InstName D3
SYMATTR Value BAS21
SYMBOL diode 320 -32 R270
WINDOW 0 32 32 VTop 2
WINDOW 3 0 32 VBottom 2
SYMATTR InstName D4
SYMATTR Value BAS21
TEXT 104 328 Left 2 !.tran 10m
TEXT 704 -256 Left 2 !.INCLUDE ZVN4424A.txt
TEXT 696 -352 Left 2 !.model DMN10H220L NMOS(Level=1 Vto=2.1 Kp=2.4 Lambda=0.01 Rd=0.15 Rs=0.1 Rg=2.0 Cgs=450p Cgd=30p)
TEXT 688 -424 Left 2 !.model BAS21 D(Is=3n Rs=0.48 N=1.82 Cjo=0.8p M=0.21 tt=50n Bv=250 Ibv=10u)
